Circuit: * C:\Users\Student\Desktop\Helicopter-altitude-controller\ltspicemodel.asc

Direct Newton iteration failed to find .op point.  (Use ".option noopiter" to skip.)
Starting Gmin stepping
Gmin = 10
Gmin = 1.07374
vernier = 0.5
vernier = 0.25
vernier = 0.125
vernier = 0.0625
vernier = 0.03125
Gmin = 1.0412
vernier = 0.015625
vernier = 0.0078125
Gmin = 1.0132
vernier = 0.00390625
vernier = 0.00195313
Gmin = 1.00827
vernier = 0.00260417
vernier = 0.00130208
Gmin = 1.00515
vernier = 0.000651042
vernier = 0.000868055
vernier = 0.000434028
Gmin = 1.00434
vernier = 0.000578703
vernier = 0.000434027
Gmin = 1.00339
Gmin = 0
Gmin stepping failed

Starting source stepping with srcstepmethod=0
Source Step = 3.0303%
Source Step = 33.3333%
Source Step = 63.6364%
Source Step = 93.9394%
Source stepping succeeded in finding the operating point.


Date: Mon Oct 18 16:19:25 2021
Total elapsed time: 0.328 seconds.

tnom = 27
temp = 27
method = modified trap
totiter = 7202
traniter = 2370
tranpoints = 1149
accept = 1122
rejected = 27
matrix size = 30
fillins = 30
solver = Normal
Thread vector: 9.2/5.4[3] 1.8/3.0[1] 2.2/2.6[1] 0.1/0.8[1]  2592/500
Matrix Compiler1: 3.18 KB object code size  0.5/0.3/[0.1]
Matrix Compiler2: 3.84 KB object code size  0.4/0.5/[0.4]

