Circuit: * C:\Users\Matekoa\OneDrive - University of Cape Town\UCT 2021\2nd Semester\EEE3094S\Labs\Lab 2\Helicopter-altitude-controller\ltspicemodel.asc

Direct Newton iteration failed to find .op point.  (Use ".option noopiter" to skip.)
Starting Gmin stepping
Gmin = 10
Gmin = 1.07374
vernier = 0.5
vernier = 0.25
vernier = 0.125
vernier = 0.0625
vernier = 0.03125
Gmin = 1.0412
vernier = 0.015625
vernier = 0.0078125
Gmin = 1.0132
vernier = 0.00390625
vernier = 0.00195313
Gmin = 1.00827
vernier = 0.00260417
vernier = 0.00130208
Gmin = 1.00515
vernier = 0.000651042
vernier = 0.000868055
vernier = 0.000434028
Gmin = 1.00434
vernier = 0.000578703
vernier = 0.000434027
Gmin = 1.00339
Gmin = 0
Gmin stepping failed

Starting source stepping with srcstepmethod=0
Source Step = 3.0303%
Source Step = 33.3333%
Source Step = 63.6364%
Source Step = 93.9394%
Source stepping succeeded in finding the operating point.


Date: Mon Oct 18 18:34:30 2021
Total elapsed time: 0.679 seconds.

tnom = 27
temp = 27
method = modified trap
totiter = 23901
traniter = 19103
tranpoints = 5596
accept = 4119
rejected = 1477
matrix size = 22
fillins = 21
solver = Normal
Thread vector: 16.5/12.8[2] 3.3/3.5[1] 2.9/6.3[1] 0.3/0.9[1]  2592/500
Matrix Compiler1: 2.22 KB object code size  0.9/0.4/[0.2]
Matrix Compiler2: 2.77 KB object code size  0.4/0.4/[0.4]

