Circuit: * C:\Users\Student\Desktop\Helicopter-altitude-controller-main\Helicopter-altitude-controller-main\ltspicemodel.asc

Direct Newton iteration failed to find .op point.  (Use ".option noopiter" to skip.)
Starting Gmin stepping
Gmin = 10
Gmin = 1.07374
vernier = 0.5
vernier = 0.25
vernier = 0.125
vernier = 0.0625
vernier = 0.03125
Gmin = 1.0412
vernier = 0.015625
vernier = 0.0078125
Gmin = 1.0132
vernier = 0.00390625
vernier = 0.00195313
Gmin = 1.00827
vernier = 0.00260417
vernier = 0.00130208
Gmin = 1.00515
vernier = 0.000651042
vernier = 0.000868055
vernier = 0.000434028
Gmin = 1.00434
vernier = 0.000578703
vernier = 0.000434027
Gmin = 1.00339
Gmin = 0
Gmin stepping failed

Starting source stepping with srcstepmethod=0
Source Step = 3.0303%
Source Step = 33.3333%
Source Step = 63.6364%
Source Step = 93.9394%
Source stepping succeeded in finding the operating point.


Date: Tue Oct 19 14:26:30 2021
Total elapsed time: 0.343 seconds.

tnom = 27
temp = 27
method = modified trap
totiter = 10073
traniter = 5252
tranpoints = 1282
accept = 1223
rejected = 59
matrix size = 31
fillins = 46
solver = Normal
Thread vector: 9.7/5.8[3] 5.3/3.0[3] 2.3/1.7[3] 0.1/0.8[1]  2592/500
Matrix Compiler1: 4.20 KB object code size  1.6/0.9/[0.4]
Matrix Compiler2: 4.22 KB object code size  0.4/0.5/[0.3]

