Circuit: * C:\Users\Sam\Desktop\Helicopter-altitude-controller-main\ltspicemodel.asc

Direct Newton iteration for .op point succeeded.

Date: Sat Oct 23 23:35:39 2021
Total elapsed time: 0.284 seconds.

tnom = 27
temp = 27
method = modified trap
totiter = 4149
traniter = 4125
tranpoints = 1139
accept = 1118
rejected = 21
matrix size = 29
fillins = 26
solver = Normal
Thread vector: 12.0/6.8[3] 2.4/3.0[1] 1.6/2.1[1] 0.7/3.8[1]  2592/500
Matrix Compiler1: 3.06 KB object code size  0.7/0.4/[0.2]
Matrix Compiler2: 3.76 KB object code size  0.4/0.4/[0.3]

